warhead-BTK.pdb
 OpenBabel03022214483D

 24 27  0  0  1  0  0  0  0  0999 V2000
   20.2870    6.0870    1.1060 C   0  0  0  0  0  0  0  0  0  0  0  0
   19.2440    5.7700    2.0450 C   0  0  0  0  0  0  0  0  0  0  0  0
   14.6810    8.4370   10.0290 C   0  0  0  0  0  0  0  0  0  0  0  0
   14.5390    8.0130    8.7090 C   0  0  0  0  0  0  0  0  0  0  0  0
   15.7310    7.9940   10.7950 C   0  0  0  0  0  0  0  0  0  0  0  0
   15.4580    7.2010    8.1430 C   0  0  0  0  0  0  0  0  0  0  0  0
   16.6340    7.0820   10.2260 C   0  0  0  0  0  0  0  0  0  0  0  0
   18.2270    4.8600    6.4540 C   0  0  0  0  0  0  0  0  0  0  0  0
   18.4030    7.3010    6.6550 C   0  0  0  0  0  0  0  0  0  0  0  0
   18.7660    4.9550    5.1970 C   0  0  0  0  0  0  0  0  0  0  0  0
   19.0040    7.3770    5.4300 C   0  0  0  0  0  0  0  0  0  0  0  0
   24.9440    7.9330    1.7670 C   0  0  0  0  0  0  0  0  0  0  0  0
   23.7910    6.9940    2.1610 C   0  0  0  0  0  0  0  0  0  0  0  0
   24.3750    9.3950    1.6010 C   0  0  0  0  0  0  0  0  0  0  0  0
   22.2340    8.5400    0.8260 C   0  0  0  0  0  0  0  0  0  0  0  0
   20.9560    6.7850    3.1520 N   0  0  0  0  0  0  0  0  0  0  0  0
   17.4730    5.8990    8.4460 O   0  0  0  0  0  0  0  0  0  0  0  0
   16.5390    6.7770    8.9170 C   0  0  0  0  0  0  0  0  0  0  0  0
   18.0050    6.0320    7.1860 C   0  0  0  0  0  0  0  0  0  0  0  0
   19.1090    6.2210    4.6750 C   0  0  0  0  0  0  0  0  0  0  0  0
   19.7570    6.2770    3.3600 C   0  0  0  0  0  0  0  0  0  0  0  0
   22.5320    7.1270    1.2610 C   0  0  2  0  0  0  0  0  0  0  0  0
   21.2400    6.6600    1.8010 N   0  0  0  0  0  0  0  0  0  0  0  0
   23.4770    9.2370    0.4970 N   0  0  0  0  0  0  0  0  0  0  0  0
  1 23  1  0  0  0  0
  1  2  2  0  0  0  0
  2 21  1  0  0  0  0
  3  5  1  0  0  0  0
  4  3  2  0  0  0  0
  6  4  1  0  0  0  0
  6 18  2  0  0  0  0
  7  5  2  0  0  0  0
  8 19  1  0  0  0  0
  9 19  2  0  0  0  0
 10  8  2  0  0  0  0
 11  9  1  0  0  0  0
 12 13  1  0  0  0  0
 14 12  1  0  0  0  0
 16 21  2  0  0  0  0
 17 18  1  0  0  0  0
 18  7  1  0  0  0  0
 19 17  1  0  0  0  0
 20 10  1  0  0  0  0
 20 11  2  0  0  0  0
 21 20  1  0  0  0  0
 22 15  1  1  0  0  0
 22 23  1  0  0  0  0
 22 13  1  0  0  0  0
 23 16  1  0  0  0  0
 24 15  1  0  0  0  0
 24 14  1  0  0  0  0
M  END
$$$$
