warhead-6zhc-AD-new.pdb
 OpenBabel05032217253D

 30 34  0  0  0  0  0  0  0  0999 V2000
    0.0220  -19.6460   17.4380 C   0  0  0  0  0  0  0  0  0  0  0  0
   -0.7260  -18.8870   18.3140 C   0  0  0  0  0  0  0  0  0  0  0  0
   -0.1810  -18.0090   19.3840 C   0  0  0  0  0  0  0  0  0  0  0  0
    0.9920  -18.2730   19.9300 O   0  0  0  0  0  0  0  0  0  0  0  0
   -0.8180  -17.0110   19.7130 O   0  0  0  0  0  0  0  0  0  0  0  0
   -1.0400  -20.4450   16.3260 S   0  0  0  0  0  0  0  0  0  0  0  0
   -2.3900  -19.7180   17.1480 C   0  0  0  0  0  0  0  0  0  0  0  0
   -2.0830  -18.9340   18.1140 N   0  0  0  0  0  0  0  0  0  0  0  0
   -3.6930  -19.8860   16.7300 N   0  0  0  0  0  0  0  0  0  0  0  0
   -4.7300  -18.9550   17.2400 C   0  0  0  0  0  0  0  0  0  0  0  0
   -6.1350  -19.4960   17.0970 C   0  0  0  0  0  0  0  0  0  0  0  0
   -6.3440  -20.5270   16.0320 C   0  0  0  0  0  0  0  0  0  0  0  0
   -5.3090  -21.1540   15.3440 C   0  0  0  0  0  0  0  0  0  0  0  0
   -3.8930  -20.8140   15.6370 C   0  0  0  0  0  0  0  0  0  0  0  0
   -7.6670  -20.8710   15.7620 C   0  0  0  0  0  0  0  0  0  0  0  0
   -7.9740  -21.8310   14.8270 C   0  0  0  0  0  0  0  0  0  0  0  0
   -6.9560  -22.4490   14.1450 C   0  0  0  0  0  0  0  0  0  0  0  0
   -5.5940  -22.1760   14.4380 C   0  0  0  0  0  0  0  0  0  0  0  0
   -4.6200  -22.8210   13.5490 C   0  0  0  0  0  0  0  0  0  0  0  0
   -3.5490  -22.2670   13.2730 O   0  0  0  0  0  0  0  0  0  0  0  0
   -5.0290  -23.9140   12.8920 N   0  0  0  0  0  0  0  0  0  0  0  0
   -4.2220  -24.4990   11.9290 C   0  0  0  0  0  0  0  0  0  0  0  0
   -4.6020  -25.5720   11.3170 N   0  0  0  0  0  0  0  0  0  0  0  0
   -3.6280  -25.9650   10.4060 C   0  0  0  0  0  0  0  0  0  0  0  0
   -2.4900  -25.1490   10.3420 C   0  0  0  0  0  0  0  0  0  0  0  0
   -2.6520  -23.8540   11.4970 S   0  0  0  0  0  0  0  0  0  0  0  0
   -3.6800  -27.0970    9.5550 C   0  0  0  0  0  0  0  0  0  0  0  0
   -2.6250  -27.3790    8.7080 C   0  0  0  0  0  0  0  0  0  0  0  0
   -1.5020  -26.5660    8.6520 C   0  0  0  0  0  0  0  0  0  0  0  0
   -1.4160  -25.4460    9.4770 C   0  0  0  0  0  0  0  0  0  0  0  0
  1  2  2  0  0  0  0
  1  6  1  0  0  0  0
  2  3  1  0  0  0  0
  2  8  1  0  0  0  0
  3  4  2  0  0  0  0
  3  5  1  0  0  0  0
  6  7  1  0  0  0  0
  7  8  2  0  0  0  0
  7  9  1  0  0  0  0
  9 10  1  0  0  0  0
  9 14  1  0  0  0  0
 10 11  1  0  0  0  0
 11 12  1  0  0  0  0
 12 13  2  0  0  0  0
 12 15  1  0  0  0  0
 13 14  1  0  0  0  0
 13 18  1  0  0  0  0
 15 16  2  0  0  0  0
 16 17  1  0  0  0  0
 17 18  2  0  0  0  0
 18 19  1  0  0  0  0
 19 20  2  0  0  0  0
 19 21  1  0  0  0  0
 21 22  1  0  0  0  0
 22 23  2  0  0  0  0
 22 26  1  0  0  0  0
 23 24  1  0  0  0  0
 24 25  2  0  0  0  0
 24 27  1  0  0  0  0
 25 26  1  0  0  0  0
 25 30  1  0  0  0  0
 27 28  2  0  0  0  0
 28 29  1  0  0  0  0
 29 30  2  0  0  0  0
M  END
$$$$
